data_crystal

_cell_length_a 25.83200
_cell_length_b 25.83200
_cell_length_c 25.83200
_cell_angle_alpha 90.00000
_cell_angle_beta  90.00000
_cell_angle_gamma 90.00000

_symmetry_space_group_name_	'P 1'
_symmetry_space_group_name_H-M	'P 1'

loop_
_symmetry_equiv_pos_as_xyz
  x,y,z

loop_
_atom_site_label
_atom_site_type_symbol
_atom_site_fract_x
_atom_site_fract_y
_atom_site_fract_z
_atom_site_charge
Zn	Zn	0.29340 0.20660 0.20660 1.21100
Zn	Zn	0.70660 0.79340 0.20660 1.21100
Zn	Zn	0.70660 0.20660 0.79340 1.21100
Zn	Zn	0.29340 0.79340 0.79340 1.21100
Zn	Zn	0.20660 0.29340 0.20660 1.21100
Zn	Zn	0.20660 0.70660 0.79340 1.21100
Zn	Zn	0.79340 0.70660 0.20660 1.21100
Zn	Zn	0.79340 0.29340 0.79340 1.21100
Zn	Zn	0.20660 0.20660 0.29340 1.21100
Zn	Zn	0.79340 0.20660 0.70660 1.21100
Zn	Zn	0.20660 0.79340 0.70660 1.21100
Zn	Zn	0.79340 0.79340 0.29340 1.21100
Zn	Zn	0.20660 0.29340 0.79340 1.21100
Zn	Zn	0.79340 0.70660 0.79340 1.21100
Zn	Zn	0.20660 0.70660 0.20660 1.21100
Zn	Zn	0.79340 0.29340 0.20660 1.21100
Zn	Zn	0.29340 0.20660 0.79340 1.21100
Zn	Zn	0.70660 0.20660 0.20660 1.21100
Zn	Zn	0.70660 0.79340 0.79340 1.21100
Zn	Zn	0.29340 0.79340 0.20660 1.21100
Zn	Zn	0.20660 0.20660 0.70660 1.21100
Zn	Zn	0.20660 0.79340 0.29340 1.21100
Zn	Zn	0.79340 0.20660 0.29340 1.21100
Zn	Zn	0.79340 0.79340 0.70660 1.21100
Zn	Zn	0.29340 0.70660 0.70660 1.21100
Zn	Zn	0.70660 0.29340 0.70660 1.21100
Zn	Zn	0.70660 0.70660 0.29340 1.21100
Zn	Zn	0.29340 0.29340 0.29340 1.21100
Zn	Zn	0.29340 0.70660 0.29340 1.21100
Zn	Zn	0.70660 0.70660 0.70660 1.21100
Zn	Zn	0.70660 0.29340 0.29340 1.21100
Zn	Zn	0.29340 0.29340 0.70660 1.21100
O 	O 	0.25000 0.25000 0.25000 -0.96800
O 	O 	0.75000 0.75000 0.25000 -0.96800
O 	O 	0.75000 0.25000 0.75000 -0.96800
O 	O 	0.25000 0.75000 0.75000 -0.96800
O 	O 	0.25000 0.25000 0.75000 -0.96800
O 	O 	0.75000 0.75000 0.75000 -0.96800
O 	O 	0.25000 0.75000 0.25000 -0.96800
O 	O 	0.75000 0.25000 0.25000 -0.96800
O 	O 	0.28190 0.21810 0.13400 -0.48300
O 	O 	0.71810 0.78190 0.13400 -0.48300
O 	O 	0.71810 0.21810 0.86600 -0.48300
O 	O 	0.28190 0.78190 0.86600 -0.48300
O 	O 	0.13400 0.28190 0.21810 -0.48300
O 	O 	0.13400 0.71810 0.78190 -0.48300
O 	O 	0.86600 0.71810 0.21810 -0.48300
O 	O 	0.86600 0.28190 0.78190 -0.48300
O 	O 	0.21810 0.13400 0.28190 -0.48300
O 	O 	0.78190 0.13400 0.71810 -0.48300
O 	O 	0.21810 0.86600 0.71810 -0.48300
O 	O 	0.78190 0.86600 0.28190 -0.48300
O 	O 	0.21810 0.28190 0.86600 -0.48300
O 	O 	0.78190 0.71810 0.86600 -0.48300
O 	O 	0.21810 0.71810 0.13400 -0.48300
O 	O 	0.78190 0.28190 0.13400 -0.48300
O 	O 	0.28190 0.13400 0.78190 -0.48300
O 	O 	0.71810 0.13400 0.21810 -0.48300
O 	O 	0.71810 0.86600 0.78190 -0.48300
O 	O 	0.28190 0.86600 0.21810 -0.48300
O 	O 	0.13400 0.21810 0.71810 -0.48300
O 	O 	0.13400 0.78190 0.28190 -0.48300
O 	O 	0.86600 0.21810 0.28190 -0.48300
O 	O 	0.86600 0.78190 0.71810 -0.48300
O 	O 	0.71810 0.78190 0.86600 -0.48300
O 	O 	0.28190 0.21810 0.86600 -0.48300
O 	O 	0.28190 0.78190 0.13400 -0.48300
O 	O 	0.71810 0.21810 0.13400 -0.48300
O 	O 	0.86600 0.71810 0.78190 -0.48300
O 	O 	0.86600 0.28190 0.21810 -0.48300
O 	O 	0.13400 0.28190 0.78190 -0.48300
O 	O 	0.13400 0.71810 0.21810 -0.48300
O 	O 	0.78190 0.86600 0.71810 -0.48300
O 	O 	0.21810 0.86600 0.28190 -0.48300
O 	O 	0.78190 0.13400 0.28190 -0.48300
O 	O 	0.21810 0.13400 0.71810 -0.48300
O 	O 	0.78190 0.71810 0.13400 -0.48300
O 	O 	0.21810 0.28190 0.13400 -0.48300
O 	O 	0.78190 0.28190 0.86600 -0.48300
O 	O 	0.21810 0.71810 0.86600 -0.48300
O 	O 	0.71810 0.86600 0.21810 -0.48300
O 	O 	0.28190 0.86600 0.78190 -0.48300
O 	O 	0.28190 0.13400 0.21810 -0.48300
O 	O 	0.71810 0.13400 0.78190 -0.48300
O 	O 	0.86600 0.78190 0.28190 -0.48300
O 	O 	0.86600 0.21810 0.71810 -0.48300
O 	O 	0.13400 0.78190 0.71810 -0.48300
O 	O 	0.13400 0.21810 0.28190 -0.48300
O 	O 	0.28190 0.71810 0.63400 -0.48200
O 	O 	0.71810 0.28190 0.63400 -0.48200
O 	O 	0.71810 0.71810 0.36600 -0.48200
O 	O 	0.28190 0.28190 0.36600 -0.48200
O 	O 	0.21810 0.63400 0.78190 -0.48200
O 	O 	0.78190 0.63400 0.21810 -0.48200
O 	O 	0.21810 0.36600 0.21810 -0.48200
O 	O 	0.78190 0.36600 0.78190 -0.48200
O 	O 	0.21810 0.78190 0.36600 -0.48200
O 	O 	0.78190 0.21810 0.36600 -0.48200
O 	O 	0.21810 0.21810 0.63400 -0.48200
O 	O 	0.78190 0.78190 0.63400 -0.48200
O 	O 	0.28190 0.63400 0.28190 -0.48200
O 	O 	0.71810 0.63400 0.71810 -0.48200
O 	O 	0.71810 0.36600 0.28190 -0.48200
O 	O 	0.28190 0.36600 0.71810 -0.48200
O 	O 	0.71810 0.28190 0.36600 -0.48200
O 	O 	0.28190 0.71810 0.36600 -0.48200
O 	O 	0.28190 0.28190 0.63400 -0.48200
O 	O 	0.71810 0.71810 0.63400 -0.48200
O 	O 	0.78190 0.36600 0.21810 -0.48200
O 	O 	0.21810 0.36600 0.78190 -0.48200
O 	O 	0.78190 0.63400 0.78190 -0.48200
O 	O 	0.21810 0.63400 0.21810 -0.48200
O 	O 	0.78190 0.21810 0.63400 -0.48200
O 	O 	0.21810 0.78190 0.63400 -0.48200
O 	O 	0.78190 0.78190 0.36600 -0.48200
O 	O 	0.21810 0.21810 0.36600 -0.48200
O 	O 	0.71810 0.36600 0.71810 -0.48200
O 	O 	0.28190 0.36600 0.28190 -0.48200
O 	O 	0.28190 0.63400 0.71810 -0.48200
O 	O 	0.71810 0.63400 0.28190 -0.48200
O 	O 	0.63400 0.28190 0.71810 -0.48200
O 	O 	0.63400 0.71810 0.28190 -0.48200
O 	O 	0.36600 0.71810 0.71810 -0.48200
O 	O 	0.36600 0.28190 0.28190 -0.48200
O 	O 	0.63400 0.21810 0.21810 -0.48200
O 	O 	0.63400 0.78190 0.78190 -0.48200
O 	O 	0.36600 0.21810 0.78190 -0.48200
O 	O 	0.36600 0.78190 0.21810 -0.48200
O 	O 	0.36600 0.71810 0.28190 -0.48200
O 	O 	0.36600 0.28190 0.71810 -0.48200
O 	O 	0.63400 0.28190 0.28190 -0.48200
O 	O 	0.63400 0.71810 0.71810 -0.48200
O 	O 	0.36600 0.78190 0.78190 -0.48200
O 	O 	0.36600 0.21810 0.21810 -0.48200
O 	O 	0.63400 0.78190 0.21810 -0.48200
O 	O 	0.63400 0.21810 0.78190 -0.48200
C 	C 	0.25000 0.25000 0.11130 0.32100
C 	C 	0.75000 0.75000 0.11130 0.32100
C 	C 	0.75000 0.25000 0.88870 0.32100
C 	C 	0.25000 0.75000 0.88870 0.32100
C 	C 	0.11130 0.25000 0.25000 0.32100
C 	C 	0.11130 0.75000 0.75000 0.32100
C 	C 	0.88870 0.75000 0.25000 0.32100
C 	C 	0.88870 0.25000 0.75000 0.32100
C 	C 	0.25000 0.11130 0.25000 0.32100
C 	C 	0.75000 0.11130 0.75000 0.32100
C 	C 	0.25000 0.88870 0.75000 0.32100
C 	C 	0.75000 0.88870 0.25000 0.32100
C 	C 	0.25000 0.25000 0.88870 0.32100
C 	C 	0.75000 0.75000 0.88870 0.32100
C 	C 	0.25000 0.75000 0.11130 0.32100
C 	C 	0.75000 0.25000 0.11130 0.32100
C 	C 	0.25000 0.11130 0.75000 0.32100
C 	C 	0.75000 0.11130 0.25000 0.32100
C 	C 	0.75000 0.88870 0.75000 0.32100
C 	C 	0.25000 0.88870 0.25000 0.32100
C 	C 	0.11130 0.25000 0.75000 0.32100
C 	C 	0.11130 0.75000 0.25000 0.32100
C 	C 	0.88870 0.25000 0.25000 0.32100
C 	C 	0.88870 0.75000 0.75000 0.32100
C 	C 	0.25000 0.75000 0.61130 0.32100
C 	C 	0.75000 0.25000 0.61130 0.32100
C 	C 	0.75000 0.75000 0.38870 0.32100
C 	C 	0.25000 0.25000 0.38870 0.32100
C 	C 	0.25000 0.61130 0.75000 0.32100
C 	C 	0.75000 0.61130 0.25000 0.32100
C 	C 	0.25000 0.38870 0.25000 0.32100
C 	C 	0.75000 0.38870 0.75000 0.32100
C 	C 	0.25000 0.75000 0.38870 0.32100
C 	C 	0.75000 0.25000 0.38870 0.32100
C 	C 	0.25000 0.25000 0.61130 0.32100
C 	C 	0.75000 0.75000 0.61130 0.32100
C 	C 	0.25000 0.61130 0.25000 0.32100
C 	C 	0.75000 0.61130 0.75000 0.32100
C 	C 	0.75000 0.38870 0.25000 0.32100
C 	C 	0.25000 0.38870 0.75000 0.32100
C 	C 	0.61130 0.25000 0.75000 0.32100
C 	C 	0.61130 0.75000 0.25000 0.32100
C 	C 	0.38870 0.75000 0.75000 0.32100
C 	C 	0.38870 0.25000 0.25000 0.32100
C 	C 	0.61130 0.25000 0.25000 0.32100
C 	C 	0.61130 0.75000 0.75000 0.32100
C 	C 	0.38870 0.25000 0.75000 0.32100
C 	C 	0.38870 0.75000 0.25000 0.32100
C 	C 	0.25000 0.25000 0.05380 -0.06400
C 	C 	0.75000 0.75000 0.05380 -0.06400
C 	C 	0.75000 0.25000 0.94620 -0.06400
C 	C 	0.25000 0.75000 0.94620 -0.06400
C 	C 	0.05380 0.25000 0.25000 -0.06400
C 	C 	0.05380 0.75000 0.75000 -0.06400
C 	C 	0.94620 0.75000 0.25000 -0.06400
C 	C 	0.94620 0.25000 0.75000 -0.06400
C 	C 	0.25000 0.05380 0.25000 -0.06400
C 	C 	0.75000 0.05380 0.75000 -0.06400
C 	C 	0.25000 0.94620 0.75000 -0.06400
C 	C 	0.75000 0.94620 0.25000 -0.06400
C 	C 	0.25000 0.25000 0.94620 -0.06400
C 	C 	0.75000 0.75000 0.94620 -0.06400
C 	C 	0.25000 0.75000 0.05380 -0.06400
C 	C 	0.75000 0.25000 0.05380 -0.06400
C 	C 	0.25000 0.05380 0.75000 -0.06400
C 	C 	0.75000 0.05380 0.25000 -0.06400
C 	C 	0.75000 0.94620 0.75000 -0.06400
C 	C 	0.25000 0.94620 0.25000 -0.06400
C 	C 	0.05380 0.25000 0.75000 -0.06400
C 	C 	0.05380 0.75000 0.25000 -0.06400
C 	C 	0.94620 0.25000 0.25000 -0.06400
C 	C 	0.94620 0.75000 0.75000 -0.06400
C 	C 	0.25000 0.75000 0.55380 -0.06400
C 	C 	0.75000 0.25000 0.55380 -0.06400
C 	C 	0.75000 0.75000 0.44620 -0.06400
C 	C 	0.25000 0.25000 0.44620 -0.06400
C 	C 	0.25000 0.55380 0.75000 -0.06400
C 	C 	0.75000 0.55380 0.25000 -0.06400
C 	C 	0.25000 0.44620 0.25000 -0.06400
C 	C 	0.75000 0.44620 0.75000 -0.06400
C 	C 	0.25000 0.75000 0.44620 -0.06400
C 	C 	0.75000 0.25000 0.44620 -0.06400
C 	C 	0.25000 0.25000 0.55380 -0.06400
C 	C 	0.75000 0.75000 0.55380 -0.06400
C 	C 	0.25000 0.55380 0.25000 -0.06400
C 	C 	0.75000 0.55380 0.75000 -0.06400
C 	C 	0.75000 0.44620 0.25000 -0.06400
C 	C 	0.25000 0.44620 0.75000 -0.06400
C 	C 	0.55380 0.25000 0.75000 -0.06400
C 	C 	0.55380 0.75000 0.25000 -0.06400
C 	C 	0.44620 0.75000 0.75000 -0.06400
C 	C 	0.44620 0.25000 0.25000 -0.06400
C 	C 	0.55380 0.25000 0.25000 -0.06400
C 	C 	0.55380 0.75000 0.75000 -0.06400
C 	C 	0.44620 0.25000 0.75000 -0.06400
C 	C 	0.44620 0.75000 0.25000 -0.06400
C 	C 	0.28290 0.21710 0.02690 -0.02300
C 	C 	0.71710 0.78290 0.02690 -0.02300
C 	C 	0.71710 0.21710 0.97310 -0.02300
C 	C 	0.28290 0.78290 0.97310 -0.02300
C 	C 	0.02690 0.28290 0.21710 -0.02300
C 	C 	0.02690 0.71710 0.78290 -0.02300
C 	C 	0.97310 0.71710 0.21710 -0.02300
C 	C 	0.97310 0.28290 0.78290 -0.02300
C 	C 	0.21710 0.02690 0.28290 -0.02300
C 	C 	0.78290 0.02690 0.71710 -0.02300
C 	C 	0.21710 0.97310 0.71710 -0.02300
C 	C 	0.78290 0.97310 0.28290 -0.02300
C 	C 	0.21710 0.28290 0.97310 -0.02300
C 	C 	0.78290 0.71710 0.97310 -0.02300
C 	C 	0.21710 0.71710 0.02690 -0.02300
C 	C 	0.78290 0.28290 0.02690 -0.02300
C 	C 	0.28290 0.02690 0.78290 -0.02300
C 	C 	0.71710 0.02690 0.21710 -0.02300
C 	C 	0.71710 0.97310 0.78290 -0.02300
C 	C 	0.28290 0.97310 0.21710 -0.02300
C 	C 	0.02690 0.21710 0.71710 -0.02300
C 	C 	0.02690 0.78290 0.28290 -0.02300
C 	C 	0.97310 0.21710 0.28290 -0.02300
C 	C 	0.97310 0.78290 0.71710 -0.02300
C 	C 	0.71710 0.78290 0.97310 -0.02300
C 	C 	0.28290 0.21710 0.97310 -0.02300
C 	C 	0.28290 0.78290 0.02690 -0.02300
C 	C 	0.71710 0.21710 0.02690 -0.02300
C 	C 	0.97310 0.71710 0.78290 -0.02300
C 	C 	0.97310 0.28290 0.21710 -0.02300
C 	C 	0.02690 0.28290 0.78290 -0.02300
C 	C 	0.02690 0.71710 0.21710 -0.02300
C 	C 	0.78290 0.97310 0.71710 -0.02300
C 	C 	0.21710 0.97310 0.28290 -0.02300
C 	C 	0.78290 0.02690 0.28290 -0.02300
C 	C 	0.21710 0.02690 0.71710 -0.02300
C 	C 	0.78290 0.71710 0.02690 -0.02300
C 	C 	0.21710 0.28290 0.02690 -0.02300
C 	C 	0.78290 0.28290 0.97310 -0.02300
C 	C 	0.21710 0.71710 0.97310 -0.02300
C 	C 	0.71710 0.97310 0.21710 -0.02300
C 	C 	0.28290 0.97310 0.78290 -0.02300
C 	C 	0.28290 0.02690 0.21710 -0.02300
C 	C 	0.71710 0.02690 0.78290 -0.02300
C 	C 	0.97310 0.78290 0.28290 -0.02300
C 	C 	0.97310 0.21710 0.71710 -0.02300
C 	C 	0.02690 0.78290 0.71710 -0.02300
C 	C 	0.02690 0.21710 0.28290 -0.02300
C 	C 	0.28290 0.71710 0.52690 -0.02300
C 	C 	0.71710 0.28290 0.52690 -0.02300
C 	C 	0.71710 0.71710 0.47310 -0.02300
C 	C 	0.28290 0.28290 0.47310 -0.02300
C 	C 	0.21710 0.52690 0.78290 -0.02300
C 	C 	0.78290 0.52690 0.21710 -0.02300
C 	C 	0.21710 0.47310 0.21710 -0.02300
C 	C 	0.78290 0.47310 0.78290 -0.02300
C 	C 	0.21710 0.78290 0.47310 -0.02300
C 	C 	0.78290 0.21710 0.47310 -0.02300
C 	C 	0.21710 0.21710 0.52690 -0.02300
C 	C 	0.78290 0.78290 0.52690 -0.02300
C 	C 	0.28290 0.52690 0.28290 -0.02300
C 	C 	0.71710 0.52690 0.71710 -0.02300
C 	C 	0.71710 0.47310 0.28290 -0.02300
C 	C 	0.28290 0.47310 0.71710 -0.02300
C 	C 	0.71710 0.28290 0.47310 -0.02300
C 	C 	0.28290 0.71710 0.47310 -0.02300
C 	C 	0.28290 0.28290 0.52690 -0.02300
C 	C 	0.71710 0.71710 0.52690 -0.02300
C 	C 	0.78290 0.47310 0.21710 -0.02300
C 	C 	0.21710 0.47310 0.78290 -0.02300
C 	C 	0.78290 0.52690 0.78290 -0.02300
C 	C 	0.21710 0.52690 0.21710 -0.02300
C 	C 	0.78290 0.21710 0.52690 -0.02300
C 	C 	0.21710 0.78290 0.52690 -0.02300
C 	C 	0.78290 0.78290 0.47310 -0.02300
C 	C 	0.21710 0.21710 0.47310 -0.02300
C 	C 	0.71710 0.47310 0.71710 -0.02300
C 	C 	0.28290 0.47310 0.28290 -0.02300
C 	C 	0.28290 0.52690 0.71710 -0.02300
C 	C 	0.71710 0.52690 0.28290 -0.02300
C 	C 	0.52690 0.28290 0.71710 -0.02300
C 	C 	0.52690 0.71710 0.28290 -0.02300
C 	C 	0.47310 0.71710 0.71710 -0.02300
C 	C 	0.47310 0.28290 0.28290 -0.02300
C 	C 	0.52690 0.21710 0.21710 -0.02300
C 	C 	0.52690 0.78290 0.78290 -0.02300
C 	C 	0.47310 0.21710 0.78290 -0.02300
C 	C 	0.47310 0.78290 0.21710 -0.02300
C 	C 	0.47310 0.71710 0.28290 -0.02300
C 	C 	0.47310 0.28290 0.71710 -0.02300
C 	C 	0.52690 0.28290 0.28290 -0.02300
C 	C 	0.52690 0.71710 0.71710 -0.02300
C 	C 	0.47310 0.78290 0.78290 -0.02300
C 	C 	0.47310 0.21710 0.21710 -0.02300
C 	C 	0.52690 0.78290 0.21710 -0.02300
C 	C 	0.52690 0.21710 0.78290 -0.02300
H 	H 	0.30490 0.19510 0.04480 0.05400
H 	H 	0.69510 0.80490 0.04480 0.05400
H 	H 	0.69510 0.19510 0.95520 0.05400
H 	H 	0.30490 0.80490 0.95520 0.05400
H 	H 	0.04480 0.30490 0.19510 0.05400
H 	H 	0.04480 0.69510 0.80490 0.05400
H 	H 	0.95520 0.69510 0.19510 0.05400
H 	H 	0.95520 0.30490 0.80490 0.05400
H 	H 	0.19510 0.04480 0.30490 0.05400
H 	H 	0.80490 0.04480 0.69510 0.05400
H 	H 	0.19510 0.95520 0.69510 0.05400
H 	H 	0.80490 0.95520 0.30490 0.05400
H 	H 	0.19510 0.30490 0.95520 0.05400
H 	H 	0.80490 0.69510 0.95520 0.05400
H 	H 	0.19510 0.69510 0.04480 0.05400
H 	H 	0.80490 0.30490 0.04480 0.05400
H 	H 	0.30490 0.04480 0.80490 0.05400
H 	H 	0.69510 0.04480 0.19510 0.05400
H 	H 	0.69510 0.95520 0.80490 0.05400
H 	H 	0.30490 0.95520 0.19510 0.05400
H 	H 	0.04480 0.19510 0.69510 0.05400
H 	H 	0.04480 0.80490 0.30490 0.05400
H 	H 	0.95520 0.19510 0.30490 0.05400
H 	H 	0.95520 0.80490 0.69510 0.05400
H 	H 	0.69510 0.80490 0.95520 0.05400
H 	H 	0.30490 0.19510 0.95520 0.05400
H 	H 	0.30490 0.80490 0.04480 0.05400
H 	H 	0.69510 0.19510 0.04480 0.05400
H 	H 	0.95520 0.69510 0.80490 0.05400
H 	H 	0.95520 0.30490 0.19510 0.05400
H 	H 	0.04480 0.30490 0.80490 0.05400
H 	H 	0.04480 0.69510 0.19510 0.05400
H 	H 	0.80490 0.95520 0.69510 0.05400
H 	H 	0.19510 0.95520 0.30490 0.05400
H 	H 	0.80490 0.04480 0.30490 0.05400
H 	H 	0.19510 0.04480 0.69510 0.05400
H 	H 	0.80490 0.69510 0.04480 0.05400
H 	H 	0.19510 0.30490 0.04480 0.05400
H 	H 	0.80490 0.30490 0.95520 0.05400
H 	H 	0.19510 0.69510 0.95520 0.05400
H 	H 	0.69510 0.95520 0.19510 0.05400
H 	H 	0.30490 0.95520 0.80490 0.05400
H 	H 	0.30490 0.04480 0.19510 0.05400
H 	H 	0.69510 0.04480 0.80490 0.05400
H 	H 	0.95520 0.80490 0.30490 0.05400
H 	H 	0.95520 0.19510 0.69510 0.05400
H 	H 	0.04480 0.80490 0.69510 0.05400
H 	H 	0.04480 0.19510 0.30490 0.05400
H 	H 	0.30490 0.69510 0.54480 0.05400
H 	H 	0.69510 0.30490 0.54480 0.05400
H 	H 	0.69510 0.69510 0.45520 0.05400
H 	H 	0.30490 0.30490 0.45520 0.05400
H 	H 	0.19510 0.54480 0.80490 0.05400
H 	H 	0.80490 0.54480 0.19510 0.05400
H 	H 	0.19510 0.45520 0.19510 0.05400
H 	H 	0.80490 0.45520 0.80490 0.05400
H 	H 	0.19510 0.80490 0.45520 0.05400
H 	H 	0.80490 0.19510 0.45520 0.05400
H 	H 	0.19510 0.19510 0.54480 0.05400
H 	H 	0.80490 0.80490 0.54480 0.05400
H 	H 	0.30490 0.54480 0.30490 0.05400
H 	H 	0.69510 0.54480 0.69510 0.05400
H 	H 	0.69510 0.45520 0.30490 0.05400
H 	H 	0.30490 0.45520 0.69510 0.05400
H 	H 	0.69510 0.30490 0.45520 0.05400
H 	H 	0.30490 0.69510 0.45520 0.05400
H 	H 	0.30490 0.30490 0.54480 0.05400
H 	H 	0.69510 0.69510 0.54480 0.05400
H 	H 	0.80490 0.45520 0.19510 0.05400
H 	H 	0.19510 0.45520 0.80490 0.05400
H 	H 	0.80490 0.54480 0.80490 0.05400
H 	H 	0.19510 0.54480 0.19510 0.05400
H 	H 	0.80490 0.19510 0.54480 0.05400
H 	H 	0.19510 0.80490 0.54480 0.05400
H 	H 	0.80490 0.80490 0.45520 0.05400
H 	H 	0.19510 0.19510 0.45520 0.05400
H 	H 	0.69510 0.45520 0.69510 0.05400
H 	H 	0.30490 0.45520 0.30490 0.05400
H 	H 	0.30490 0.54480 0.69510 0.05400
H 	H 	0.69510 0.54480 0.30490 0.05400
H 	H 	0.54480 0.30490 0.69510 0.05400
H 	H 	0.54480 0.69510 0.30490 0.05400
H 	H 	0.45520 0.69510 0.69510 0.05400
H 	H 	0.45520 0.30490 0.30490 0.05400
H 	H 	0.54480 0.19510 0.19510 0.05400
H 	H 	0.54480 0.80490 0.80490 0.05400
H 	H 	0.45520 0.19510 0.80490 0.05400
H 	H 	0.45520 0.80490 0.19510 0.05400
H 	H 	0.45520 0.69510 0.30490 0.05400
H 	H 	0.45520 0.30490 0.69510 0.05400
H 	H 	0.54480 0.30490 0.30490 0.05400
H 	H 	0.54480 0.69510 0.69510 0.05400
H 	H 	0.45520 0.80490 0.80490 0.05400
H 	H 	0.45520 0.19510 0.19510 0.05400
H 	H 	0.54480 0.80490 0.19510 0.05400
H 	H 	0.54480 0.19510 0.80490 0.05400
